3    
Iteration 48 Energy -92.33969025
C       -0.6430494858   -0.8915380650    0.0113376419
N        0.0360230936    0.0479589797   -0.0004173651
H        0.6120998487    0.8449548315   -0.0103867218
3    
Iteration 47 Energy -92.33969025
C       -0.6430491780   -0.8915365739    0.0113371818
N        0.0360233998    0.0479570820   -0.0004163797
H        0.6120992348    0.8449552380   -0.0103872473
3    
Iteration 46 Energy -92.33968667
C       -0.6422853461   -0.8930541302    0.0113358253
N        0.0333099011    0.0498115016   -0.0003952614
H        0.6140489015    0.8446183748   -0.0104070090
3    
Iteration 45 Energy -92.33958681
C       -0.6359210610   -0.8983010963    0.0112904306
N        0.0193644884    0.0611288055   -0.0002949639
H        0.6216300292    0.8385480370   -0.0104619119
3    
Iteration 44 Energy -92.33935602
C       -0.6301072676   -0.9033941257    0.0112503447
N        0.0059373435    0.0712044860   -0.0001946100
H        0.6292433807    0.8335653860   -0.0105221797
3    
Iteration 43 Energy -92.33897303
C       -0.6229874592   -0.9076867323    0.0111922922
N       -0.0080156143    0.0826610064   -0.0000948717
H        0.6360765300    0.8264014721   -0.0105638656
3    
Iteration 42 Energy -92.33846090
C       -0.6161941843   -0.9121034127    0.0111383812
N       -0.0222328738    0.0931752064    0.0000120989
H        0.6435005146    0.8203039526   -0.0106169253
3    
Iteration 41 Energy -92.33780697
C       -0.6081766864   -0.9152250426    0.0110651184
N       -0.0360834975    0.1048257055    0.0001098246
H        0.6493336404    0.8117750833   -0.0106413881
3    
Iteration 40 Energy -92.33706037
C       -0.6013653373   -0.9191595815    0.0110087879
N       -0.0505019516    0.1143417481    0.0002235948
H        0.6569407454    0.8061935796   -0.0106988278
3    
Iteration 39 Energy -92.33618622
C       -0.5919002454   -0.9199328998    0.0109088771
N       -0.0626604222    0.1269176291    0.0002985567
H        0.6596341242    0.7943910169   -0.0106738789
3    
Iteration 38 Energy -92.33517406
C       -0.5839122977   -0.9231212450    0.0108362448
N       -0.0782837385    0.1369715634    0.0004230198
H        0.6672694927    0.7875254278   -0.0107257097
3    
Iteration 37 Energy -92.33403666
C       -0.5741026403   -0.9238479248    0.0107323522
N       -0.0918167325    0.1488977476    0.0005160025
H        0.6709928293    0.7763259234   -0.0107147998
3    
Iteration 36 Energy -92.33277524
C       -0.5645483870   -0.9249695392    0.0106330718
N       -0.1065020240    0.1599519390    0.0006256012
H        0.6761238675    0.7663933464   -0.0107251181
3    
Iteration 35 Energy -92.33139911
C       -0.5542725600   -0.9250812476    0.0105212488
N       -0.1206481978    0.1713821993    0.0007275728
H        0.6799942144    0.7550747945   -0.0107152667
3    
Iteration 34 Energy -92.32990743
C       -0.5437318003   -0.9248019766    0.0104047275
N       -0.1350142961    0.1826054639    0.0008329028
H        0.6838195529    0.7435722590   -0.0107040754
3    
Iteration 33 Energy -92.32830076
C       -0.5327173203   -0.9238326964    0.0102798475
N       -0.1492153471    0.1938725482    0.0009362264
H        0.6870061239    0.7313358945   -0.0106825190
3    
Iteration 32 Energy -92.32657701
C       -0.5213476325   -0.9223179214    0.0101485702
N       -0.1634350026    0.2050351086    0.0010402351
H        0.6898560916    0.7186585590   -0.0106552504
3    
Iteration 31 Energy -92.32473382
C       -0.5095755636   -0.9201803731    0.0100100239
N       -0.1775585232    0.2161453387    0.0011434340
H        0.6922075433    0.7054107806   -0.0106199031
3    
Iteration 30 Energy -92.32276771
C       -0.4974494325   -0.9174669034    0.0098649527
N       -0.1916392676    0.2271455867    0.0012466722
H        0.6941621566    0.6916970629   -0.0105780700
3    
Iteration 29 Energy -92.32067494
C       -0.4849650216   -0.9141567892    0.0097132150
N       -0.2056306479    0.2380408883    0.0013494171
H        0.6956691260    0.6774916471   -0.0105290772
3    
Iteration 28 Energy -92.31845162
C       -0.4721550647   -0.9102756040    0.0095552865
N       -0.2195523010    0.2487969789    0.0014520412
H        0.6967808222    0.6628543713   -0.0104737728
3    
Iteration 27 Energy -92.31609439
C       -0.4590294423   -0.9058215133    0.0093912667
N       -0.2333787043    0.2594071330    0.0015542967
H        0.6974816032    0.6477901265   -0.0104120085
3    
Iteration 26 Energy -92.31360084
C       -0.4456184618   -0.9008175755    0.0092215933
N       -0.2471235466    0.2698443786    0.0016564573
H        0.6978154649    0.6323489430   -0.0103444957
3    
Iteration 25 Energy -92.31097020
C       -0.4319361060   -0.8952688880    0.0090464426
N       -0.2607693959    0.2801006479    0.0017583698
H        0.6977789584    0.6165439864   -0.0102712575
3    
Iteration 24 Energy -92.30820387
C       -0.4180121744   -0.8891989485    0.0088662487
N       -0.2743317538    0.2901528206    0.0018603102
H        0.6974173847    0.6004218741   -0.0101930039
3    
Iteration 23 Energy -92.30530601
C       -0.4038607468   -0.8826149304    0.0086811985
N       -0.2877972423    0.2999944776    0.0019621617
H        0.6967314456    0.5839961990   -0.0101098053
3    
Iteration 22 Energy -92.30228400
C       -0.3895122159   -0.8755412075    0.0084917367
N       -0.3011879003    0.3096038131    0.0020642659
H        0.6957735726    0.5673131406   -0.0100224477
3    
Iteration 21 Energy -92.29914877
C       -0.3749762090   -0.8679816081    0.0082979862
N       -0.3144865121    0.3189792452    0.0021664417
H        0.6945361776    0.5503781092   -0.0099308730
3    
Iteration 20 Energy -92.29591499
C       -0.3602891153   -0.8599649771    0.0081004776
N       -0.3277325656    0.3280945865    0.0022692417
H        0.6930951374    0.5332461368   -0.0098361644
3    
Iteration 19 Energy -92.29260094
C       -0.3454473078   -0.8514829922    0.0078991330
N       -0.3408863628    0.3369593130    0.0023721880
H        0.6914071271    0.5158994253   -0.0097377662
3    
Iteration 18 Energy -92.28922831
C       -0.3304989011   -0.8425736370    0.0076946535
N       -0.3540143170    0.3455403654    0.0024761592
H        0.6895866746    0.4984090178   -0.0096372578
3    
Iteration 17 Energy -92.28582160
C       -0.3154549345   -0.8332388454    0.0074871686
N       -0.3671095112    0.3538330485    0.0025811012
H        0.6876379022    0.4807815432   -0.0095347149
3    
Iteration 16 Energy -92.28240730
C       -0.3003436055   -0.8234944400    0.0072770596
N       -0.3801991705    0.3618206549    0.0026873887
H        0.6856162325    0.4630495313   -0.0094308934
3    
Iteration 15 Energy -92.27901291
C       -0.2851981652   -0.8133573515    0.0070647678
N       -0.3933195611    0.3694831445    0.0027955105
H        0.6835911827    0.4452499532   -0.0093267235
3    
Iteration 14 Energy -92.27566585
C       -0.2700602984   -0.8028470749    0.0068508390
N       -0.4065206461    0.3767952716    0.0029061292
H        0.6816544009    0.4274275495   -0.0092234133
3    
Iteration 13 Energy -92.27239219
C       -0.2549841200   -0.7919869979    0.0066359725
N       -0.4198705979    0.3837246797    0.0030201391
H        0.6799281743    0.4096380645   -0.0091225568
3    
Iteration 12 Energy -92.26921556
C       -0.2400418002   -0.7808062885    0.0064210917
N       -0.4334610359    0.3902294948    0.0031387349
H        0.6785762926    0.3919525399   -0.0090262717
3    
Iteration 11 Energy -92.26615623
C       -0.2253293305   -0.7693415958    0.0062074149
N       -0.4474088417    0.3962566577    0.0032634388
H        0.6778116288    0.3744606843   -0.0089372988
3    
Iteration 10 Energy -92.26323078
C       -0.2109707506   -0.7576384685    0.0059965081
N       -0.4618511892    0.4017421885    0.0033960453
H        0.6778953963    0.3572720261   -0.0088589986
3    
Iteration 9 Energy -92.26045279
C       -0.1971169568   -0.7457516137    0.0057902730
N       -0.4769294426    0.4066153667    0.0035384259
H        0.6791198559    0.3405119933   -0.0087951440
3    
Iteration 8 Energy -92.25783498
C       -0.1839314097   -0.7337411490    0.0055907736
N       -0.4927575838    0.4108097398    0.0036921327
H        0.6817624500    0.3243071554   -0.0087493514
3    
Iteration 7 Energy -92.25539276
C       -0.1715585740   -0.7216623251    0.0053998440
N       -0.5093827767    0.4142802237    0.0038578893
H        0.6860148072    0.3087578476   -0.0087241783
3    
Iteration 6 Energy -92.25314832
C       -0.1600903932   -0.7095535159    0.0052186661
N       -0.5267667829    0.4170162697    0.0040353261
H        0.6919306326    0.2939129924   -0.0087204373
3    
Iteration 5 Energy -92.25113320
C       -0.1495508884   -0.6974293095    0.0050475697
N       -0.5448009847    0.4190424250    0.0042231426
H        0.6994253296    0.2797626307   -0.0087371574
3    
Iteration 4 Energy -92.24938797
C       -0.1399078619   -0.6852834865    0.0048861742
N       -0.5633433562    0.4204064657    0.0044195661
H        0.7083246746    0.2662527671   -0.0087721854
3    
Iteration 3 Energy -92.24795860
C       -0.1310860418   -0.6730899693    0.0047335366
N       -0.5822490417    0.4211680618    0.0046227378
H        0.7184085400    0.2532976537   -0.0088227194
3    
Iteration 2 Energy -92.24689275
C       -0.1225950869   -0.6606510826    0.0045833852
N       -0.6010531509    0.4215203978    0.0048266851
H        0.7287216943    0.2405064309   -0.0088765154
3    
Iteration 1 Energy -92.24623642
C       -0.1163043868   -0.6488143548    0.0044600627
N       -0.6209489004    0.4209155005    0.0050469781
H        0.7423267437    0.2292746006   -0.0089734859
3    
Iteration 1 Energy -92.24624150
C       -0.1014881395   -0.6238562442    0.0041830653
N       -0.6574653685    0.4198785935    0.0054509638
H        0.7640269645    0.2053533969   -0.0091004742
3    
Iteration 2 Energy -92.24693987
C       -0.0968298258   -0.6117399755    0.0040763001
N       -0.6770790259    0.4181794637    0.0056732158
H        0.7789823083    0.1949362580   -0.0092159610
3    
Iteration 3 Energy -92.24813091
C       -0.0903854467   -0.5984024542    0.0039443810
N       -0.6955443575    0.4165592884    0.0058825501
H        0.7910032606    0.1832189120   -0.0092933762
3    
Iteration 4 Energy -92.24980472
C       -0.0850731553   -0.5851896478    0.0038254128
N       -0.7143311582    0.4144680396    0.0060975698
H        0.8044777700    0.1720973544   -0.0093894278
3    
Iteration 5 Energy -92.25194051
C       -0.0798888956   -0.5717046511    0.0037065900
N       -0.7327918036    0.4121013598    0.0063102933
H        0.8177541557    0.1609790375   -0.0094833284
3    
Iteration 6 Energy -92.25450911
C       -0.0749633823   -0.5580058918    0.0035896106
N       -0.7509944422    0.4094467454    0.0065215231
H        0.8310312809    0.1499348926   -0.0095775789
3    
Iteration 7 Energy -92.25747221
C       -0.0702484743   -0.5440813084    0.0034738929
N       -0.7688983359    0.4065194415    0.0067307438
H        0.8442202668    0.1389376131   -0.0096710818
3    
Iteration 8 Energy -92.26078499
C       -0.0657254349   -0.5299307816    0.0033592315
N       -0.7864812915    0.4033294713    0.0069376663
H        0.8572801829    0.1279770565   -0.0097633429
3    
Iteration 9 Energy -92.26439824
C       -0.0613770501   -0.5155551296    0.0032454419
N       -0.8037224780    0.3998858405    0.0071420216
H        0.8701729845    0.1170450353   -0.0098539086
3    
Iteration 10 Energy -92.26826056
C       -0.0571889590   -0.5009565546    0.0031323773
N       -0.8206029266    0.3961965342    0.0073435655
H        0.8828653422    0.1061357666   -0.0099423879
3    
Iteration 11 Energy -92.27232036
C       -0.0531499514   -0.4861387692    0.0030199323
N       -0.8371057423    0.3922687506    0.0075420800
H        0.8953291502    0.0952457647   -0.0100284574
3    
Iteration 12 Energy -92.27652752
C       -0.0492513610   -0.4711067585    0.0029080350
N       -0.8532157614    0.3881091506    0.0077373687
H        0.9075405789    0.0843733541   -0.0101118489
3    
Iteration 13 Energy -92.28083476
C       -0.0454847788   -0.4558659541    0.0027966187
N       -0.8689180606    0.3837240565    0.0079292394
H        0.9194762959    0.0735176438   -0.0101923032
3    
Iteration 14 Energy -92.28519859
C       -0.0418432931   -0.4404226502    0.0026856367
N       -0.8841987858    0.3791194957    0.0081175127
H        0.9311155354    0.0626789007   -0.0102695945
3    
Iteration 15 Energy -92.28957981
C       -0.0383199651   -0.4247834400    0.0025750436
N       -0.8990438351    0.3743011986    0.0083020081
H        0.9424372567    0.0518579876   -0.0103434968
3    
Iteration 16 Energy -92.29394382
C       -0.0349026957   -0.4089539833    0.0024647331
N       -0.9134375870    0.3692750669    0.0084825277
H        0.9534137392    0.0410546626   -0.0104137060
3    
Iteration 17 Energy -92.29826057
C       -0.0315880118   -0.3929425540    0.0023547055
N       -0.9273680213    0.3640463803    0.0086589157
H        0.9640294896    0.0302719198   -0.0104800664
3    
Iteration 18 Energy -92.30250429
C       -0.0283644892   -0.3767556582    0.0022448659
N       -0.9408187899    0.3586202592    0.0088309698
H        0.9742567356    0.0195111452   -0.0105422808
3    
Iteration 19 Energy -92.30665316
C       -0.0252236985   -0.3604010277    0.0021351576
N       -0.9537757215    0.3530017368    0.0089985118
H        0.9840728765    0.0087750371   -0.0106001146
3    
Iteration 20 Energy -92.31068889
C       -0.0221566639   -0.3438866490    0.0020255195
N       -0.9662243684    0.3471956563    0.0091613615
H        0.9934544888   -0.0019332612   -0.0106533261
3    
Iteration 21 Energy -92.31459622
C       -0.0191539995   -0.3272208201    0.0019158871
N       -0.9781500359    0.3412066699    0.0093193368
H        1.0023774919   -0.0126101035   -0.0107016690
3    
Iteration 22 Energy -92.31836249
C       -0.0162056568   -0.3104121459    0.0018061902
N       -0.9895373835    0.3350391984    0.0094722497
H        1.0108164968   -0.0232513063   -0.0107448850
3    
Iteration 23 Energy -92.32197720
C       -0.0133044950   -0.2934702993    0.0016963954
N       -1.0003734620    0.3286978355    0.0096199373
H        1.0187514135   -0.0338517900   -0.0107827778
3    
Iteration 24 Energy -92.32543161
C       -0.0104431878   -0.2764053482    0.0015864690
N       -1.0106452765    0.3221871041    0.0097622368
H        1.0261619208   -0.0444060097   -0.0108151509
3    
Iteration 25 Energy -92.32871839
C       -0.0076152797   -0.2592279969    0.0014763896
N       -1.0203404677    0.3155115808    0.0098989920
H        1.0330292039   -0.0549078377   -0.0108418267
3    
Iteration 26 Energy -92.33183128
C       -0.0048150316   -0.2419495590    0.0013661468
N       -1.0294472757    0.3086759350    0.0100300528
H        1.0393357637   -0.0653506298   -0.0108626447
3    
Iteration 27 Energy -92.33476482
C       -0.0020381190   -0.2245820833    0.0012557487
N       -1.0379550739    0.3016850640    0.0101552805
H        1.0450666494   -0.0757272345   -0.0108774743
3    
Iteration 28 Energy -92.33751400
C        0.0007195846   -0.2071382734    0.0011452089
N       -1.0458531967    0.2945439897    0.0102745352
H        1.0502070686   -0.0860299701   -0.0108861892
3    
Iteration 29 Energy -92.34007404
C        0.0034602646   -0.1896317376    0.0010345661
N       -1.0531324602    0.2872581681    0.0103876915
H        1.0547456521   -0.0962506843   -0.0108887027
3    
Iteration 30 Energy -92.34244008
C        0.0061866691   -0.1720770156    0.0009238572
N       -1.0597825623    0.2798332197    0.0104946109
H        1.0586693498   -0.1063804578   -0.0108849132
3    
Iteration 31 Energy -92.34460692
C        0.0088983123   -0.1544901094    0.0008131614
N       -1.0657952344    0.2722756233    0.0105951730
H        1.0619703786   -0.1164097677   -0.0108747795
3    
Iteration 32 Energy -92.34656878
C        0.0115969327   -0.1368889628    0.0007025424
N       -1.0711583788    0.2645921050    0.0106892147
H        1.0646349026   -0.1263273960   -0.0108582021
3    
Iteration 33 Energy -92.34831919
C        0.0142758098   -0.1192943798    0.0005921694
N       -1.0758654591    0.2567916553    0.0107766230
H        1.0666631058   -0.1361215293   -0.0108352375
3    
Iteration 34 Energy -92.34985089
C        0.0169366925   -0.1017321808    0.0004821424
N       -1.0798974589    0.2488834646    0.0108571476
H        1.0680342229   -0.1457755375   -0.0108057352
3    
Iteration 35 Energy -92.35115608
C        0.0195597076   -0.0842358184    0.0003728328
N       -1.0832483188    0.2408831294    0.0109306506
H        1.0687620677   -0.1552715648   -0.0107699285
3    
Iteration 36 Energy -92.35222683
C        0.0221440476   -0.0668542857    0.0002644752
N       -1.0858822045    0.2328080871    0.0109966597
H        1.0688116134   -0.1645780552   -0.0107275801
3    
Iteration 37 Energy -92.35305576
C        0.0246310072   -0.0496640439    0.0001580638
N       -1.0877932249    0.2246970864    0.0110549320
H        1.0682356742   -0.1736572962   -0.0106794409
3    
Iteration 38 Energy -92.35363726
C        0.0270261200   -0.0328248848    0.0000542745
N       -1.0888592198    0.2166052045    0.0111038782
H        1.0669065563   -0.1824045735   -0.0106245978
3    
Iteration 39 Energy -92.35396904
C        0.0290158235   -0.0167607305   -0.0000415111
N       -1.0890726755    0.2087575444    0.0111423786
H        1.0651303085   -0.1906210677   -0.0105673127
3    
Iteration 40 Energy -92.35405912
C        0.0301112976   -0.0048148946   -0.0001085409
N       -1.0872940563    0.2025936805    0.0111513413
H        1.0622562152   -0.1964030397   -0.0105092455
3    
Iteration 41 Energy -92.35405911
C        0.0301107679   -0.0048158663   -0.0001085307
N       -1.0872917138    0.2025937595    0.0111513153
H        1.0622544024   -0.1964021470   -0.0105092297
