6    
Iteration 0 Energy -149.93317873
O        0.8559100000   -1.3823600000    0.3174600000
H        1.6752400000   -1.8477400000    0.4858000000
H        1.1176100000   -0.4684300000    0.2057500000
O       -1.0986300000   -0.8583700000    2.1731900000
H       -0.4031000000   -1.1460800000    1.5818400000
H       -1.0851100000    0.0968300000    2.1128200000
6    
Iteration 1 Energy -149.93923992
O        0.8151240895   -1.3397588967    0.3266451389
H        1.6435486596   -1.8464005672    0.5322028094
H        1.2103556547   -0.4465133167    0.1581136759
O       -1.1237255054   -0.8946770880    2.2036738427
H       -0.4231640362   -1.1700315050    1.5539698421
H       -1.0602188605    0.0912313752    2.1022546899
6    
Iteration 2 Energy -149.93966027
O        0.8338858814   -1.3141881582    0.3156815191
H        1.6238148725   -1.8617220174    0.5518824100
H        1.2496467138   -0.4367724243    0.1249396892
O       -1.1281328638   -0.8960864776    2.2156161957
H       -0.4483161580   -1.1857000875    1.5540378143
H       -1.0689784437    0.0883191664    2.1147023707
6    
Iteration 3 Energy -149.93989583
O        0.8352673398   -1.2946131467    0.3161911241
H        1.5990507861   -1.8621388740    0.5719985882
H        1.2906369754   -0.4458554528    0.1052034195
O       -1.1215283426   -0.9083390489    2.2179175436
H       -0.4581395730   -1.1701575938    1.5342007112
H       -1.0833671833    0.0749541175    2.1313486122
6    
Iteration 4 Energy -149.94005182
O        0.8369690099   -1.2734318463    0.3142825002
H        1.5686544254   -1.8702415901    0.5960568847
H        1.3386010344   -0.4567732368    0.0823452686
O       -1.1094809989   -0.9254065493    2.2183204595
H       -0.4589988717   -1.1405775679    1.5066851924
H       -1.1138245959    0.0602807915    2.1591696938
6    
Iteration 5 Energy -149.94014471
O        0.8427386465   -1.2578375251    0.3018371234
H        1.5406286979   -1.8825465228    0.6108454546
H        1.3880068439   -0.4711870848    0.0613750385
O       -1.0985503455   -0.9403069049    2.2217883640
H       -0.4528737613   -1.0998959858    1.4898373089
H       -1.1580300781    0.0456240247    2.1911767098
6    
Iteration 6 Energy -149.94017393
O        0.8443016320   -1.2535053036    0.2935658102
H        1.5280894462   -1.8914381001    0.6091096311
H        1.4074711229   -0.4770375920    0.0592393769
O       -1.0917152422   -0.9438437768    2.2235131506
H       -0.4419062328   -1.0806006180    1.4897070144
H       -1.1843207226    0.0402753918    2.2017250160
6    
Iteration 7 Energy -149.94019814
O        0.8459029089   -1.2508023546    0.2857343088
H        1.5166281210   -1.9043825642    0.5987966023
H        1.4222692124   -0.4791201730    0.0663639767
O       -1.0848399851   -0.9450121871    2.2278207552
H       -0.4288594469   -1.0623992277    1.4958510576
H       -1.2091808067    0.0355665080    2.2022932988
6    
Iteration 8 Energy -149.94024102
O        0.8460176296   -1.2434481993    0.2772642885
H        1.4964102716   -1.9247297695    0.5744605316
H        1.4447897305   -0.4803382112    0.0895895030
O       -1.0720864597   -0.9424798334    2.2360898560
H       -0.4090852734   -1.0455219453    1.5078179181
H       -1.2441258949    0.0303679603    2.1916379024
6    
Iteration 9 Energy -149.94041414
O        0.8516865071   -1.2018096129    0.2543397947
H        1.4022908894   -1.9956805910    0.4620438835
H        1.5445484272   -0.4991158409    0.1999546095
O       -1.0166158583   -0.9230355793    2.2749221002
H       -0.3461487196   -0.9755935620    1.5473403697
H       -1.3738412422   -0.0109148119    2.1382592423
6    
Iteration 10 Energy -149.94042550
O        0.9229330977   -1.0515643097    0.2508002139
H        1.0854154320   -2.0136530179    0.0864256779
H        1.8248636064   -0.7484133458    0.5196415035
O       -0.8626341223   -0.7789943374    2.3765291561
H       -0.2466199701   -0.7111293057    1.6021543640
H       -1.6620380395   -0.3023956802    2.0413090857
6    
Iteration 11 Energy -149.94085008
O        0.8761830318   -1.1019362003    0.2469288025
H        1.2071628445   -2.0333704429    0.2367166592
H        1.7146559156   -0.6054713900    0.4107598781
O       -0.9242010286   -0.8515956912    2.3447067077
H       -0.2669065490   -0.8667578965    1.6036851643
H       -1.5449742106   -0.1470183763    2.0340627889
6    
Iteration 12 Energy -149.94108232
O        0.8760181275   -1.0745825753    0.2592214149
H        1.1669432123   -2.0177451285    0.2170422531
H        1.7342538026   -0.6204650203    0.4398391683
O       -0.9122428000   -0.8437377835    2.3500262337
H       -0.2619953404   -0.8868064090    1.6047957534
H       -1.5410569984   -0.1628130806    2.0059351777
6    
Iteration 13 Energy -149.94122971
O        0.8891728477   -1.0101416529    0.2938652472
H        1.0485015739   -1.9614765143    0.0844460774
H        1.7935958664   -0.7264306391    0.5696166605
O       -0.8628956795   -0.7824823265    2.3720384477
H       -0.2220590351   -0.8575799451    1.6220710982
H       -1.5843955702   -0.2680389190    1.9348224704
6    
Iteration 14 Energy -149.94124005
O        0.8930974702   -1.0163153356    0.2857643473
H        1.0626540029   -1.9709318602    0.1009838306
H        1.7950771160   -0.7139960921    0.5488007671
O       -0.8703499238   -0.7904430602    2.3719946648
H       -0.2332955614   -0.8607237427    1.6180220369
H       -1.5852631006   -0.2537399062    1.9512943546
6    
Iteration 15 Energy -149.94124197
O        0.8907786884   -1.0195275120    0.2868121966
H        1.0684762797   -1.9723999495    0.1003287530
H        1.7901924238   -0.7097866685    0.5503371996
O       -0.8719116667   -0.7904568621    2.3712433805
H       -0.2331113265   -0.8648424418    1.6191448986
H       -1.5825043955   -0.2491365631    1.9489935730
6    
Iteration 16 Energy -149.94124349
O        0.8904860830   -1.0212250760    0.2886900202
H        1.0720093255   -1.9722578017    0.0964477226
H        1.7886535942   -0.7091357714    0.5537782414
O       -0.8723804640   -0.7888569607    2.3712855374
H       -0.2347869890   -0.8675944579    1.6186431692
H       -1.5820615464   -0.2470799293    1.9480153105
6    
Iteration 17 Energy -149.94124430
O        0.8904931241   -1.0241143939    0.2896360872
H        1.0785047648   -1.9734278627    0.0952742821
H        1.7867788542   -0.7061599612    0.5540335252
O       -0.8742675576   -0.7885838228    2.3712749764
H       -0.2385534842   -0.8717119976    1.6174954155
H       -1.5810356980   -0.2421519587    1.9491457150
6    
Iteration 18 Energy -149.94124434
O        0.8907376241   -1.0244313268    0.2896264094
H        1.0793574529   -1.9736560918    0.0954808000
H        1.7869173540   -0.7057854070    0.5534848263
O       -0.8746532464   -0.7887015633    2.3713435586
H       -0.2393887199   -0.8721330145    1.6172364000
H       -1.5810504615   -0.2414425936    1.9496880072
6    
Iteration 19 Energy -149.94124435
O        0.8908076146   -1.0244399622    0.2896334656
H        1.0793913499   -1.9736953878    0.0956291001
H        1.7870461547   -0.7057535505    0.5532267589
O       -0.8747684185   -0.7887573408    2.3713596029
H       -0.2394737130   -0.8721304965    1.6172703387
H       -1.5810829844   -0.2413732590    1.9497407351
6    
Iteration 20 Energy -149.94124435
O        0.8908786148   -1.0244338791    0.2897301542
H        1.0793457193   -1.9737024658    0.0956921005
H        1.7872232150   -0.7057919219    0.5530052449
O       -0.8749067279   -0.7887635277    2.3713802314
H       -0.2394737817   -0.8720848068    1.6174032977
H       -1.5811470361   -0.2413733958    1.9496489726
6    
Iteration 21 Energy -149.94124436
O        0.8909549072   -1.0244255912    0.2899535461
H        1.0792386001   -1.9736707825    0.0956319732
H        1.7874587327   -0.7059073476    0.5528316510
O       -0.8750928087   -0.7886993244    2.3714087956
H       -0.2393914567   -0.8720152221    1.6176582894
H       -1.5812479714   -0.2414317292    1.9493757460
6    
Iteration 22 Energy -149.94124436
O        0.8909751433   -1.0244227528    0.2901143045
H        1.0791623014   -1.9736284745    0.0955004448
H        1.7875574839   -0.7060026870    0.5528482128
O       -0.8751706563   -0.7886196554    2.3714220246
H       -0.2393010127   -0.8719785589    1.6178189242
H       -1.5813032562   -0.2414978683    1.9491560904
6    
Iteration 23 Energy -149.94124436
O        0.8909667414   -1.0244233769    0.2901527401
H        1.0791447586   -1.9736108227    0.0954355376
H        1.7875541613   -0.7060298945    0.5529058875
O       -0.8751683012   -0.7885878365    2.3714224365
H       -0.2392677630   -0.8719756103    1.6178484898
H       -1.5813095938   -0.2415224561    1.9490949099
6    
Iteration 24 Energy -149.94124436
O        0.8909626554   -1.0244237586    0.2901506934
H        1.0791458674   -1.9736091548    0.0954272545
H        1.7875450682   -0.7060301058    0.5529215157
O       -0.8751610747   -0.7885850607    2.3714214831
H       -0.2392655022   -0.8719776157    1.6178438647
H       -1.5813070108   -0.2415243013    1.9490951900
6    
Iteration 25 Energy -149.94124436
O        0.8909622531   -1.0244238032    0.2901496867
H        1.0791463599   -1.9736092609    0.0954273752
H        1.7875438926   -0.7060296021    0.5529225350
O       -0.8751601542   -0.7885852895    2.3714213456
H       -0.2392658254   -0.8719779711    1.6178426742
H       -1.5813065227   -0.2415240702    1.9490963846
6    
Iteration 26 Energy -149.94124436
O        0.8909622011   -1.0244238073    0.2901495499
H        1.0791464232   -1.9736092757    0.0954273892
H        1.7875437362   -0.7060295382    0.5529226735
O       -0.8751600262   -0.7885853201    2.3714213274
H       -0.2392658695   -0.8719780128    1.6178425130
H       -1.5813064615   -0.2415240429    1.9490965484
6    
Iteration 27 Energy -149.94124436
O        0.8909621936   -1.0244238081    0.2901495314
H        1.0791464322   -1.9736092775    0.0954273913
H        1.7875437147   -0.7060295289    0.5529226924
O       -0.8751600095   -0.7885853242    2.3714213249
H       -0.2392658753   -0.8719780195    1.6178424912
H       -1.5813064524   -0.2415240386    1.9490965702
6    
Iteration 28 Energy -149.94124436
O        0.8909621927   -1.0244238081    0.2901495289
H        1.0791464334   -1.9736092778    0.0954273915
H        1.7875437119   -0.7060295278    0.5529226950
O       -0.8751600071   -0.7885853248    2.3714213246
H       -0.2392658762   -0.8719780202    1.6178424882
H       -1.5813064514   -0.2415240382    1.9490965732
6    
Iteration 29 Energy -149.94124436
O        0.8909622482   -1.0244237376    0.2901496382
H        1.0791462494   -1.9736092012    0.0954272406
H        1.7875438801   -0.7060297123    0.5529227269
O       -0.8751600329   -0.7885852319    2.3714213621
H       -0.2392657835   -0.8719779094    1.6178426238
H       -1.5813065581   -0.2415242047    1.9490964097
6    
Iteration 30 Energy -149.94124436
O        0.8909621946   -1.0244238114    0.2901495379
H        1.0791464330   -1.9736092811    0.0954273986
H        1.7875437200   -0.7060295251    0.5529226758
O       -0.8751600172   -0.7885853242    2.3714213255
H       -0.2392658740   -0.8719780208    1.6178424996
H       -1.5813064531   -0.2415240344    1.9490965640
6    
Iteration 31 Energy -149.94124436
O        0.8909621923   -1.0244238087    0.2901495291
H        1.0791464318   -1.9736092785    0.0954273912
H        1.7875437126   -0.7060295288    0.5529226918
O       -0.8751600062   -0.7885853223    2.3714213264
H       -0.2392658747   -0.8719780184    1.6178424905
H       -1.5813064524   -0.2415240403    1.9490965724
6    
Iteration 32 Energy -149.94124436
O        0.8909621914   -1.0244238093    0.2901495279
H        1.0791464335   -1.9736092792    0.0954273930
H        1.7875437104   -0.7060295267    0.5529226920
O       -0.8751600053   -0.7885853233    2.3714213258
H       -0.2392658757   -0.8719780199    1.6178424884
H       -1.5813064510   -0.2415240385    1.9490965744
6    
Iteration 33 Energy -149.94124436
O        0.8909623036   -1.0244236085    0.2901496345
H        1.0791460007   -1.9736090826    0.0954269926
H        1.7875440101   -0.7060299780    0.5529229460
O       -0.8751599152   -0.7885851093    2.3714214136
H       -0.2392656991   -0.8719777371    1.6178426420
H       -1.5813066967   -0.2415244815    1.9490963726
6    
Iteration 34 Energy -149.94124436
O        0.8909621910   -1.0244238173    0.2901495335
H        1.0791464468   -1.9736092880    0.0954274159
H        1.7875437091   -0.7060295062    0.5529226671
O       -0.8751600173   -0.7885853320    2.3714213206
H       -0.2392658800   -0.8719780322    1.6178424898
H       -1.5813064463   -0.2415240214    1.9490965745
6    
Iteration 35 Energy -149.94124436
O        0.8909621928   -1.0244238077    0.2901495283
H        1.0791464316   -1.9736092775    0.0954273891
H        1.7875437129   -0.7060295297    0.5529226937
O       -0.8751600048   -0.7885853206    2.3714213276
H       -0.2392658739   -0.8719780161    1.6178424911
H       -1.5813064552   -0.2415240454    1.9490965716
6    
Iteration 36 Energy -149.94124436
O        0.8909621912   -1.0244238095    0.2901495277
H        1.0791464354   -1.9736092794    0.0954273950
H        1.7875437095   -0.7060295241    0.5529226907
O       -0.8751600051   -0.7885853235    2.3714213257
H       -0.2392658758   -0.8719780202    1.6178424881
H       -1.5813064518   -0.2415240402    1.9490965741
