3    
Iteration 45 Energy -92.33763690
C       -0.6223373544   -0.8926187813    0.0111157426
N        0.0102136486    0.0850054426   -0.0003049631
H        0.6171971622    0.8089890849   -0.0102772246
3    
Iteration 44 Energy -92.33907645
C       -0.6314947494   -0.9068665445    0.0112815160
N       -0.0026229438    0.0730516525   -0.0001095398
H        0.6391911497    0.8351906382   -0.0106384214
3    
Iteration 43 Energy -92.33884474
C       -0.6221703818   -0.9041520035    0.0111670695
N       -0.0078287508    0.0866180286   -0.0001151509
H        0.6350725891    0.8189097211   -0.0105183636
3    
Iteration 42 Energy -92.33837289
C       -0.6218963402   -0.9133039923    0.0112062516
N       -0.0229695006    0.0881976866    0.0000430914
H        0.6499392973    0.8264820519   -0.0107157882
3    
Iteration 41 Energy -92.33800692
C       -0.6114226507   -0.9095091755    0.0110742618
N       -0.0276582267    0.1028076656    0.0000270178
H        0.6441543339    0.8080772562   -0.0105677247
3    
Iteration 40 Energy -92.33743436
C       -0.6065549103   -0.9161800756    0.0110517901
N       -0.0450763320    0.1095351300    0.0001864325
H        0.6567046988    0.8080206919   -0.0107046677
3    
Iteration 39 Energy -92.33661392
C       -0.5973103535   -0.9175233035    0.0109569168
N       -0.0577559736    0.1220566706    0.0002673424
H        0.6601397836    0.7968423792   -0.0106907043
3    
Iteration 38 Energy -92.33563842
C       -0.5887016938   -0.9200428080    0.0108744163
N       -0.0726865095    0.1330183136    0.0003800486
H        0.6664616598    0.7884002406   -0.0107209099
3    
Iteration 37 Energy -92.33454126
C       -0.5793200696   -0.9214661566    0.0107784137
N       -0.0869233188    0.1445142920    0.0004827082
H        0.6713168449    0.7783276108   -0.0107275671
3    
Iteration 36 Energy -92.33332326
C       -0.5696381312   -0.9224918622    0.0106772955
N       -0.1013924667    0.1558328412    0.0005887256
H        0.6761040544    0.7680347672   -0.0107324662
3    
Iteration 35 Energy -92.33198785
C       -0.5594937157   -0.9228629008    0.0105681042
N       -0.1157354386    0.1672054316    0.0006931145
H        0.6803026108    0.7570332154   -0.0107276638
3    
Iteration 34 Energy -92.33053517
C       -0.5489606544   -0.9226745554    0.0104520862
N       -0.1300869796    0.1785193981    0.0007978673
H        0.6841210905    0.7455309035   -0.0107163985
3    
Iteration 33 Energy -92.32896514
C       -0.5380144760   -0.9218778709    0.0103287482
N       -0.1443710865    0.1898041216    0.0009020176
H        0.6874590190    0.7334494955   -0.0106972109
3    
Iteration 32 Energy -92.32727618
C       -0.5266801417   -0.9204928794    0.0101984556
N       -0.1586114792    0.2010219289    0.0010059984
H        0.6903650774    0.7208466966   -0.0106708991
3    
Iteration 31 Energy -92.32546592
C       -0.5149610553   -0.9185088460    0.0100611960
N       -0.1727815718    0.2121667083    0.0011095472
H        0.6928160836    0.7077178839   -0.0106371884
3    
Iteration 30 Energy -92.32353111
C       -0.5028765621   -0.9159356428    0.0099172264
N       -0.1868841530    0.2232134840    0.0012128097
H        0.6948341716    0.6940979050   -0.0105964812
3    
Iteration 29 Energy -92.32146805
C       -0.4904396308   -0.9127745402    0.0097666945
N       -0.2009059321    0.2341473979    0.0013157089
H        0.6964190195    0.6800028885   -0.0105488485
3    
Iteration 28 Energy -92.31927293
C       -0.4776698097   -0.9090350429    0.0096098577
N       -0.2148419390    0.2449488623    0.0014182809
H        0.6975852053    0.6654619268   -0.0104945837
3    
Iteration 27 Energy -92.31694228
C       -0.4645878886   -0.9047283972    0.0094469952
N       -0.2286897284    0.2555982197    0.0015205895
H        0.6983510735    0.6505059236   -0.0104340298
3    
Iteration 26 Energy -92.31447357
C       -0.4512131088   -0.8998646996    0.0092783639
N       -0.2424423026    0.2660799294    0.0016226297
H        0.6987288679    0.6351605165   -0.0103674387
3    
Iteration 25 Energy -92.31186572
C       -0.4375682887   -0.8944589280    0.0091042822
N       -0.2560999789    0.2763763107    0.0017244867
H        0.6987417241    0.6194583635   -0.0102952140
3    
Iteration 24 Energy -92.30911977
C       -0.4236751657   -0.8885255565    0.0089250545
N       -0.2696625126    0.2864721297    0.0018262278
H        0.6984111349    0.6034291730   -0.0102177274
3    
Iteration 23 Energy -92.30623936
C       -0.4095560024   -0.8820801544    0.0087409959
N       -0.2831329548    0.2963524907    0.0019279551
H        0.6977624137    0.5871034100   -0.0101353961
3    
Iteration 22 Energy -92.30323132
C       -0.3952313611   -0.8751370117    0.0085523970
N       -0.2965132401    0.3060050425    0.0020297467
H        0.6968180577    0.5705077154   -0.0100485888
3    
Iteration 21 Energy -92.30010597
C       -0.3807236826   -0.8677122523    0.0083595776
N       -0.3098116747    0.3154159477    0.0021317571
H        0.6956088138    0.5536720508   -0.0099577798
3    
Iteration 20 Energy -92.29687731
C       -0.3660525374   -0.8598188022    0.0081628111
N       -0.3230333557    0.3245741341    0.0022340932
H        0.6941593496    0.5366204143   -0.0098633494
3    
Iteration 19 Energy -92.29356307
C       -0.3512362879   -0.8514683674    0.0079623522
N       -0.3361825903    0.3334700947    0.0023368457
H        0.6924923347    0.5193740189   -0.0097656430
3    
Iteration 18 Energy -92.29018450
C       -0.3363034037   -0.8426825855    0.0077586119
N       -0.3492864826    0.3420877610    0.0024403851
H        0.6906633428    0.5019705708   -0.0096654421
3    
Iteration 17 Energy -92.28676567
C       -0.3212665972   -0.8334626286    0.0075517345
N       -0.3623394160    0.3504188280    0.0025446882
H        0.6886794697    0.4844195468   -0.0095628678
3    
Iteration 16 Energy -92.28333294
C       -0.3061537717   -0.8238259787    0.0073421057
N       -0.3753680438    0.3584477211    0.0026501182
H        0.6865952719    0.4667540038   -0.0094586690
3    
Iteration 15 Energy -92.27991396
C       -0.2909955153   -0.8137884812    0.0071301328
N       -0.3884033139    0.3661561703    0.0027570977
H        0.6844722858    0.4490080571   -0.0093536756
3    
Iteration 14 Energy -92.27653656
C       -0.2758307773   -0.8033688096    0.0069163278
N       -0.4014904177    0.3735204319    0.0028662300
H        0.6823946515    0.4312241239   -0.0092490029
3    
Iteration 13 Energy -92.27322762
C       -0.2607121945   -0.7925905634    0.0067013749
N       -0.4146962168    0.3805083753    0.0029783942
H        0.6804818678    0.4134579343   -0.0091462142
3    
Iteration 12 Energy -92.27001184
C       -0.2457134762   -0.7814847183    0.0064862225
N       -0.4281176730    0.3870758233    0.0030948540
H        0.6789046057    0.3957846412   -0.0090475216
3    
Iteration 11 Energy -92.26691082
C       -0.2309374141   -0.7700919033    0.0062721818
N       -0.4418868133    0.3931636761    0.0032173250
H        0.6778976838    0.3783039734   -0.0089559519
3    
Iteration 10 Energy -92.26394242
C       -0.2165311168   -0.7584683582    0.0060611200
N       -0.4561795238    0.3986919070    0.0033480989
H        0.6777840971    0.3611521974   -0.0088756641
3    
Iteration 9 Energy -92.26112073
C       -0.2026825043   -0.7466838079    0.0058554130
N       -0.4711856006    0.4035669113    0.0034896820
H        0.6789415615    0.3444926428   -0.0088115401
3    
Iteration 8 Energy -92.25845736
C       -0.1895996288   -0.7348155171    0.0056576913
N       -0.4870569326    0.4076981186    0.0036441521
H        0.6817300179    0.3284931448   -0.0087682885
3    
Iteration 7 Energy -92.25596465
C       -0.1774553696   -0.7229295717    0.0054701495
N       -0.5038342853    0.4110287975    0.0038122164
H        0.6863631113    0.3132765204   -0.0087488110
3    
Iteration 6 Energy -92.25366133
C       -0.1663409038   -0.7110654423    0.0052939661
N       -0.5214207329    0.4135539249    0.0039928384
H        0.6928350932    0.2988872637   -0.0087532496
3    
Iteration 5 Energy -92.25157756
C       -0.1562481009   -0.6992304992    0.0051290863
N       -0.5395968663    0.4153185945    0.0041834117
H        0.7009184237    0.2852876509   -0.0087789430
3    
Iteration 4 Energy -92.24975604
C       -0.1470950239   -0.6874143778    0.0049745665
N       -0.5580482270    0.4163970012    0.0043801565
H        0.7102167074    0.2723931227   -0.0088211681
3    
Iteration 3 Energy -92.24824845
C       -0.1386574480   -0.6755869132    0.0048278165
N       -0.5763239158    0.4169288274    0.0045774999
H        0.7200548203    0.2600338320   -0.0088717615
3    
Iteration 2 Energy -92.24708267
C       -0.1328338396   -0.6647578634    0.0047142444
N       -0.5944239631    0.4162456032    0.0047785228
H        0.7323312592    0.2498880063   -0.0089592122
3    
Iteration 1 Energy -92.24630891
C       -0.1172894009   -0.6502105440    0.0044772656
N       -0.6023541529    0.4184377599    0.0048551147
H        0.7247170103    0.2331485303   -0.0087988254
3    
Iteration 1 Energy -92.24578956
C       -0.1087717134   -0.6355055337    0.0043163783
N       -0.6585846836    0.4228602543    0.0054494591
H        0.7724298535    0.2140210255   -0.0092322825
3    
Iteration 2 Energy -92.24554709
C       -0.0908697213   -0.6272247323    0.0040825062
N       -0.6472519643    0.4266604088    0.0053080535
H        0.7431951421    0.2019400696   -0.0088570049
3    
Iteration 3 Energy -92.24620732
C       -0.1006009905   -0.6255426664    0.0041811389
N       -0.6636911476    0.4224001594    0.0055074046
H        0.7693655946    0.2045182532   -0.0091549886
3    
Iteration 4 Energy -92.24694766
C       -0.0949149965   -0.6126558008    0.0040595874
N       -0.6803129780    0.4204383105    0.0056981600
H        0.7803014310    0.1935932364   -0.0092241925
3    
Iteration 5 Energy -92.24815325
C       -0.0900727893   -0.5998083068    0.0039474420
N       -0.6992481506    0.4183731191    0.0059146816
H        0.7943943964    0.1828109339   -0.0093285687
3    
Iteration 6 Energy -92.24983452
C       -0.0844997167   -0.5863647771    0.0038245596
N       -0.7175092664    0.4162315686    0.0061241863
H        0.8070824396    0.1715089547   -0.0094151910
3    
Iteration 7 Energy -92.25197311
C       -0.0792731646   -0.5727490933    0.0037046721
N       -0.7356980715    0.4137979355    0.0063342465
H        0.8200446926    0.1603269040   -0.0095053636
3    
Iteration 8 Energy -92.25454028
C       -0.0742300126   -0.5589027942    0.0035857267
N       -0.7536373447    0.4110994427    0.0065427993
H        0.8329408138    0.1491790977   -0.0095949712
3    
Iteration 9 Energy -92.25749827
C       -0.0693936818   -0.5448396494    0.0034680430
N       -0.7713058101    0.4081368066    0.0067496090
H        0.8457729484    0.1380785890   -0.0096840971
3    
Iteration 10 Energy -92.26080286
C       -0.0647696862   -0.5305670100    0.0033517151
N       -0.7886830317    0.4049152174    0.0069544282
H        0.8585261743    0.1270275388   -0.0097725884
3    
Iteration 11 Energy -92.26440546
C       -0.0603478461   -0.5160870358    0.0032366417
N       -0.8057450809    0.4014421821    0.0071569606
H        0.8711663835    0.1160205998   -0.0098600475
3    
Iteration 12 Energy -92.26825531
C       -0.0561171929   -0.5014020397    0.0031227136
N       -0.8224712113    0.3977251624    0.0073569451
H        0.8836618607    0.1050526236   -0.0099461038
3    
Iteration 13 Energy -92.27230139
C       -0.0520632355   -0.4865137987    0.0030097804
N       -0.8388400970    0.3937715724    0.0075541144
H        0.8959767891    0.0941179725   -0.0100303399
3    
Iteration 14 Energy -92.27649413
C       -0.0481736810   -0.4714253922    0.0028977220
N       -0.8548329534    0.3895883176    0.0077482313
H        0.9080800909    0.0832128208   -0.0101123985
3    
Iteration 15 Energy -92.28078668
C       -0.0444332417   -0.4561396691    0.0027863845
N       -0.8704293723    0.3851820423    0.0079390421
H        0.9199360705    0.0723333730   -0.0101918717
3    
Iteration 16 Energy -92.28513593
C       -0.0408291534   -0.4406608318    0.0026756476
N       -0.8856109980    0.3805589102    0.0081263176
H        0.9315136079    0.0614776678   -0.0102684103
3    
Iteration 17 Energy -92.28950307
C       -0.0373502825   -0.4249940573    0.0025654134
N       -0.9003590245    0.3757244067    0.0083098271
H        0.9427827634    0.0506453969   -0.0103416856
3    
Iteration 18 Energy -92.29385379
C       -0.0339819498   -0.4091443504    0.0024555446
N       -0.9146547851    0.3706842519    0.0084893400
H        0.9537101914    0.0398358447   -0.0104113298
3    
Iteration 19 Energy -92.29815844
C       -0.0307200709   -0.3931199094    0.0023460344
N       -0.9284892863    0.3654444218    0.0086647306
H        0.9642828136    0.0290512338   -0.0104772101
3    
Iteration 20 Energy -92.30239141
C       -0.0275537043   -0.3769274963    0.0022367941
N       -0.9418464601    0.3600101334    0.0088357991
H        0.9744736209    0.0182931091   -0.0105390383
3    
Iteration 21 Energy -92.30653105
C       -0.0244718942   -0.3605742288    0.0021277370
N       -0.9547104298    0.3543863416    0.0090023491
H        0.9842557805    0.0075636334   -0.0105965312
3    
Iteration 22 Energy -92.31055916
C       -0.0214640306   -0.3440677579    0.0020187821
N       -0.9670657119    0.3485778207    0.0091641894
H        0.9936031989   -0.0031343166   -0.0106494166
3    
Iteration 23 Energy -92.31446050
C       -0.0185179313   -0.3274159483    0.0019098327
N       -0.9788955542    0.3425890523    0.0093211161
H        1.0024869420   -0.0137973578   -0.0106973940
3    
Iteration 24 Energy -92.31822248
C       -0.0156263080   -0.3106280494    0.0018008517
N       -0.9901871493    0.3364247161    0.0094729678
H        1.0108869139   -0.0244209205   -0.0107402645
3    
Iteration 25 Energy -92.32183461
C       -0.0127831153   -0.2937138949    0.0016918182
N       -1.0009289396    0.3300895559    0.0096195960
H        1.0187855114   -0.0349999147   -0.0107778593
3    
Iteration 26 Energy -92.32528808
C       -0.0099788110   -0.2766832639    0.0015826731
N       -1.0111064745    0.3235879466    0.0097608228
H        1.0261587420   -0.0455289364   -0.0108099410
3    
Iteration 27 Energy -92.32857549
C       -0.0072044297   -0.2595466985    0.0014733669
N       -1.0207054831    0.3169242504    0.0098964720
H        1.0329833693   -0.0560018057   -0.0108362840
3    
Iteration 28 Energy -92.33169056
C       -0.0044590570   -0.2423161799    0.0013639448
N       -1.0297185894    0.3101037151    0.0100264388
H        1.0392511029   -0.0664117890   -0.0108568287
3    
Iteration 29 Energy -92.33462770
C       -0.0017341881   -0.2250034877    0.0012543682
N       -1.0381319146    0.3031308410    0.0101505507
H        1.0449395592   -0.0767516071   -0.0108713640
3    
Iteration 30 Energy -92.33738191
C        0.0009693137   -0.2076219147    0.0011447077
N       -1.0459393510    0.2960113592    0.0102687145
H        1.0500434938   -0.0870136982   -0.0108798673
3    
Iteration 31 Energy -92.33994828
C        0.0036585245   -0.1901850296    0.0010349485
N       -1.0531275941    0.2887502269    0.0103807620
H        1.0545425262   -0.0971894511   -0.0108821556
3    
Iteration 32 Energy -92.34232194
C        0.0063314592   -0.1727081589    0.0009251830
N       -1.0596903570    0.2813539136    0.0104865945
H        1.0584323543   -0.1072700085   -0.0108782227
3    
Iteration 33 Energy -92.34449768
C        0.0089891654   -0.1552078593    0.0008154760
N       -1.0656178449    0.2738289491    0.0105860750
H        1.0617021360   -0.1172453436   -0.0108679962
3    
Iteration 34 Energy -92.34646974
C        0.0116283147   -0.1377031919    0.0007059518
N       -1.0709020687    0.2661832719    0.0106790795
H        1.0643472105   -0.1271043338   -0.0108514764
3    
Iteration 35 Energy -92.34823162
C        0.0142503321   -0.1202172464    0.0005967011
N       -1.0755272909    0.2584254023    0.0107653967
H        1.0663504153   -0.1368324097   -0.0108285429
3    
Iteration 36 Energy -92.34977615
C        0.0168408101   -0.1027794331    0.0004880170
N       -1.0794864539    0.2505685714    0.0108448884
H        1.0677191003   -0.1464133920   -0.0107993505
3    
Iteration 37 Energy -92.35109554
C        0.0193948512   -0.0854303489    0.0003801402
N       -1.0827551885    0.2426283875    0.0109172163
H        1.0684337938   -0.1558222924   -0.0107638017
3    
Iteration 38 Energy -92.35218178
C        0.0218841925   -0.0682340512    0.0002736749
N       -1.0853113797    0.2346330303    0.0109820088
H        1.0685006437   -0.1650232329   -0.0107221288
3    
Iteration 39 Energy -92.35302727
C        0.0242676003   -0.0513053494    0.0001696008
N       -1.0871094805    0.2266321975    0.0110385390
H        1.0679153368   -0.1739511019   -0.0106745849
3    
Iteration 40 Energy -92.35362536
C        0.0264510139   -0.0349190986    0.0000702132
N       -1.0880524688    0.2187473983    0.0110851860
H        1.0666749114   -0.1824525534   -0.0106218443
3    
Iteration 41 Energy -92.35397055
C        0.0281935150   -0.0199879846   -0.0000176482
N       -1.0878859926    0.2113908698    0.0111172695
H        1.0647659340   -0.1900271390   -0.0105660664
3    
Iteration 42 Energy -92.35405194
C        0.0280776781   -0.0129738643   -0.0000487073
N       -1.0862233530    0.2077198116    0.0111160117
H        1.0632191314   -0.1933702011   -0.0105337495
3    
Iteration 43 Energy -92.35406603
C        0.0315050651   -0.0051099825   -0.0001224180
N       -1.0885880971    0.2040981166    0.0111585547
H        1.0621564885   -0.1976123880   -0.0105025818
3    
Iteration 44 Energy -92.35408279
C        0.0305455113   -0.0049309397   -0.0001127530
N       -1.0870903928    0.2038251420    0.0111434394
H        1.0616183380   -0.1975184560   -0.0104971315
3    
Iteration 45 Energy -92.35281029
C        0.0159926349   -0.0022126553    0.0000338150
N       -1.0991598068    0.2060758796    0.0112650124
H        1.0882406284   -0.2024874781   -0.0107652726
3    
Iteration 46 Energy -92.35391359
C        0.0255278067   -0.0040671233   -0.0000618793
N       -1.0927197619    0.2049085750    0.0111999879
H        1.0722654117   -0.1994657055   -0.0106045538
3    
Iteration 47 Energy -92.35404801
C        0.0312170390   -0.0050563086   -0.0001195166
N       -1.0843991809    0.2033202101    0.0111163455
H        1.0582555984   -0.1968881553   -0.0104632740
3    
Iteration 48 Energy -92.35241670
C        0.0141123135   -0.0019141429    0.0000529954
N       -1.1016835621    0.2065741904    0.0112903062
H        1.0926447050   -0.2032843014   -0.0108097468
