3    
Iteration 48 Energy -92.33971298
C       -0.6430492752   -0.8915383656    0.0113371879
N        0.0360194399    0.0479516754   -0.0004163044
H        0.6121032918    0.8449624364   -0.0103873286
3    
Iteration 47 Energy -92.33971298
C       -0.6430492757   -0.8915383740    0.0113371912
N        0.0360194360    0.0479516869   -0.0004163115
H        0.6121032962    0.8449624334   -0.0103873248
3    
Iteration 46 Energy -92.33970967
C       -0.6423324929   -0.8930046437    0.0113361126
N        0.0334267539    0.0497196177   -0.0003961154
H        0.6139791956    0.8446607722   -0.0104064424
3    
Iteration 45 Energy -92.33961119
C       -0.6359904271   -0.8982587190    0.0112909937
N        0.0194996960    0.0610110174   -0.0002958992
H        0.6215641876    0.8386234478   -0.0104615396
3    
Iteration 44 Energy -92.33938054
C       -0.6301406334   -0.9033568814    0.0112505378
N        0.0060303940    0.0711463221   -0.0001953592
H        0.6291836960    0.8335863055   -0.0105216236
3    
Iteration 43 Energy -92.33899816
C       -0.6230417855   -0.9076774766    0.0111928434
N       -0.0079416869    0.0825782513   -0.0000952985
H        0.6360569288    0.8264749715   -0.0105639901
3    
Iteration 42 Energy -92.33848522
C       -0.6161967066   -0.9120679077    0.0111382452
N       -0.0221700879    0.0931668261    0.0000114511
H        0.6434402510    0.8202768278   -0.0106161414
3    
Iteration 41 Energy -92.33783116
C       -0.6082170537   -0.9152467470    0.0110656597
N       -0.0360746389    0.1047697178    0.0001099858
H        0.6493651492    0.8118527754   -0.0106420906
3    
Iteration 40 Energy -92.33708203
C       -0.6013143721   -0.9191218213    0.0110080567
N       -0.0504825035    0.1144160774    0.0002230396
H        0.6568703321    0.8060814901   -0.0106975414
3    
Iteration 39 Energy -92.33620650
C       -0.5918788647   -0.9199337685    0.0109086474
N       -0.0626862396    0.1269469207    0.0002987039
H        0.6596385608    0.7943625939   -0.0106737964
3    
Iteration 38 Energy -92.33519566
C       -0.5839401311   -0.9231679678    0.0108367644
N       -0.0783421929    0.1369337713    0.0004238330
H        0.6673557805    0.7876099427   -0.0107270425
3    
Iteration 37 Energy -92.33405975
C       -0.5740876273   -0.9238286913    0.0107320994
N       -0.0917940894    0.1489156144    0.0005156727
H        0.6709551733    0.7762888231   -0.0107142172
3    
Iteration 36 Energy -92.33279880
C       -0.5645561963   -0.9249812653    0.0106332112
N       -0.1065157836    0.1599406899    0.0006258034
H        0.6761454364    0.7664163216   -0.0107254598
3    
Iteration 35 Energy -92.33142315
C       -0.5542697531   -0.9250780746    0.0105212035
N       -0.1206430035    0.1713842802    0.0007275065
H        0.6799862131    0.7550695406   -0.0107151550
3    
Iteration 34 Energy -92.32993183
C       -0.5437342416   -0.9248058921    0.0104047723
N       -0.1350181056    0.1826011072    0.0008329645
H        0.6838258036    0.7435805311   -0.0107041819
3    
Iteration 33 Energy -92.32832551
C       -0.5327169503   -0.9238328317    0.0102798441
N       -0.1492139354    0.1938716237    0.0009362152
H        0.6870043422    0.7313369542   -0.0106825044
3    
Iteration 32 Energy -92.32660205
C       -0.5213489474   -0.9223202735    0.0101485954
N       -0.1634365927    0.2050321834    0.0010402660
H        0.6898589966    0.7186638363   -0.0106553065
3    
Iteration 31 Energy -92.32475913
C       -0.5095758687   -0.9201814403    0.0100100322
N       -0.1775582518    0.2161435518    0.0011434393
H        0.6922075770    0.7054136347   -0.0106199166
3    
Iteration 30 Energy -92.32279322
C       -0.4974504390   -0.9174688684    0.0098649728
N       -0.1916403954    0.2271429244    0.0012466968
H        0.6941642909    0.6917016902   -0.0105781147
3    
Iteration 29 Energy -92.32070060
C       -0.4849654878   -0.9141580987    0.0097132261
N       -0.2056309007    0.2380387101    0.0013494299
H        0.6956698450    0.6774951348   -0.0105291011
3    
Iteration 28 Energy -92.31847738
C       -0.4721557688   -0.9102772031    0.0095553015
N       -0.2195530415    0.2487944863    0.0014520608
H        0.6967822668    0.6628584630   -0.0104738074
3    
Iteration 27 Energy -92.31612021
C       -0.4590301609   -0.9058231187    0.0093912820
N       -0.2333795821    0.2594045081    0.0015543184
H        0.6974831995    0.6477943568   -0.0104120454
3    
Iteration 26 Energy -92.31362667
C       -0.4456191067   -0.9008190891    0.0092216073
N       -0.2471243236    0.2698417473    0.0016564779
H        0.6978168868    0.6323530880   -0.0103445304
3    
Iteration 25 Energy -92.31099601
C       -0.4319370023   -0.8952706636    0.0090464606
N       -0.2607707042    0.2800976701    0.0017583978
H        0.6977811629    0.6165487397   -0.0102713035
3    
Iteration 24 Energy -92.30822962
C       -0.4180130356   -0.8892006675    0.0088662660
N       -0.2743330131    0.2901497777    0.0018603380
H        0.6974195052    0.6004266361   -0.0101930491
3    
Iteration 23 Energy -92.30533169
C       -0.4038618496   -0.8826168688    0.0086812195
N       -0.2877989984    0.2999910892    0.0019621965
H        0.6967343046    0.5840015258   -0.0101098611
3    
Iteration 22 Energy -92.30230959
C       -0.3895130511   -0.8755428618    0.0084917535
N       -0.3011890999    0.3096005801    0.0020642939
H        0.6957756075    0.5673180279   -0.0100224925
3    
Iteration 21 Energy -92.29917428
C       -0.3749774086   -0.8679836041    0.0082980085
N       -0.3144884091    0.3189756114    0.0021664792
H        0.6945392743    0.5503837389   -0.0099309328
3    
Iteration 20 Energy -92.29594043
C       -0.3602901499   -0.8599667880    0.0081004973
N       -0.3277340838    0.3280909856    0.0022692748
H        0.6930976901    0.5332515486   -0.0098362172
3    
Iteration 19 Energy -92.29262632
C       -0.3454482007   -0.8514846654    0.0078991505
N       -0.3408875351    0.3369557566    0.0023722172
H        0.6914091922    0.5159046550   -0.0097378128
3    
Iteration 18 Energy -92.28925366
C       -0.3304997216   -0.8425752415    0.0076946699
N       -0.3540152783    0.3455368081    0.0024761861
H        0.6895884564    0.4984141796   -0.0096373011
3    
Iteration 17 Energy -92.28584693
C       -0.3154555308   -0.8332402616    0.0074871817
N       -0.3671099514    0.3538296144    0.0025811219
H        0.6876389387    0.4807863934   -0.0095347486
3    
Iteration 16 Energy -92.28243261
C       -0.3003439699   -0.8234956735    0.0072770692
N       -0.3801990780    0.3618173606    0.0026874029
H        0.6856165044    0.4630540590   -0.0094309172
3    
Iteration 15 Energy -92.27903821
C       -0.2851981740   -0.8133583210    0.0070647724
N       -0.3933186987    0.3694800864    0.0027955152
H        0.6835903292    0.4452539808   -0.0093267327
3    
Iteration 14 Energy -92.27569113
C       -0.2700598182   -0.8028477137    0.0068508367
N       -0.4065187853    0.3767925608    0.0029061213
H        0.6816520601    0.4274308991   -0.0092234032
3    
Iteration 13 Energy -92.27241743
C       -0.2549832171   -0.7919873786    0.0066359644
N       -0.4198679179    0.3837222948    0.0030201208
H        0.6799245915    0.4096408300   -0.0091225303
3    
Iteration 12 Energy -92.26924075
C       -0.2400404967   -0.7808064379    0.0064210782
N       -0.4334576251    0.3902274299    0.0031387071
H        0.6785715783    0.3919547542   -0.0090262304
3    
Iteration 11 Energy -92.26618133
C       -0.2253274668   -0.7693414314    0.0062073938
N       -0.4474044788    0.3962550094    0.0032633987
H        0.6778054021    0.3744621682   -0.0089372376
3    
Iteration 10 Energy -92.26325577
C       -0.2109682535   -0.7576379654    0.0059964785
N       -0.4618458500    0.4017410055    0.0033959924
H        0.6778875601    0.3572727061   -0.0088589160
3    
Iteration 9 Energy -92.26047765
C       -0.1971139541   -0.7457508518    0.0057902366
N       -0.4769234351    0.4066145917    0.0035383638
H        0.6791108458    0.3405120063   -0.0087950455
3    
Iteration 8 Energy -92.25785966
C       -0.1839278706   -0.7337401058    0.0055907301
N       -0.4927509528    0.4108093798    0.0036920619
H        0.6817522799    0.3243064722   -0.0087492371
3    
Iteration 7 Energy -92.25541725
C       -0.1715546480   -0.7216610706    0.0053997953
N       -0.5093757999    0.4142802080    0.0038578131
H        0.6860039044    0.3087566088   -0.0087240534
3    
Iteration 6 Energy -92.25317258
C       -0.1600863269   -0.7095521679    0.0052186154
N       -0.5267597973    0.4170164920    0.0040352487
H        0.6919195807    0.2939114221   -0.0087203092
3    
Iteration 5 Energy -92.25115719
C       -0.1495470629   -0.6974280552    0.0050475221
N       -0.5447943975    0.4190427366    0.0042230692
H        0.6994149169    0.2797610648   -0.0087370364
3    
Iteration 4 Energy -92.24941168
C       -0.1399044695   -0.6852824201    0.0048861322
N       -0.5633373285    0.4204067917    0.0044194987
H        0.7083152544    0.2662513747   -0.0087720760
3    
Iteration 3 Energy -92.24798205
C       -0.1310833104   -0.6730892175    0.0047335032
N       -0.5822436929    0.4211683260    0.0046226781
H        0.7184004597    0.2532966377   -0.0088226264
3    
Iteration 2 Energy -92.24691598
C       -0.1225923571   -0.6606504413    0.0045833524
N       -0.6010481035    0.4215208860    0.0048266277
H        0.7287139172    0.2405053015   -0.0088764252
3    
Iteration 1 Energy -92.24625952
C       -0.1163025051   -0.6488143436    0.0044600421
N       -0.6209449115    0.4209160649    0.0050469319
H        0.7423208731    0.2292740249   -0.0089734191
3    
Iteration 1 Energy -92.24626478
C       -0.1014874782   -0.6238545503    0.0041830503
N       -0.6574678335    0.4198783103    0.0054509921
H        0.7640287682    0.2053519861   -0.0091004874
3    
Iteration 2 Energy -92.24696351
C       -0.0968280724   -0.6117371030    0.0040762677
N       -0.6770816655    0.4181791273    0.0056732462
H        0.7789831944    0.1949337219   -0.0092159590
3    
Iteration 3 Energy -92.24815501
C       -0.0903851905   -0.5984000921    0.0039443673
N       -0.6955479178    0.4165585864    0.0058825923
H        0.7910065649    0.1832172519   -0.0092934047
3    
Iteration 4 Energy -92.24982932
C       -0.0850734210   -0.5851874542    0.0038254056
N       -0.7143349385    0.4144671779    0.0060976151
H        0.8044818160    0.1720960225   -0.0093894659
3    
Iteration 5 Energy -92.25196563
C       -0.0798897013   -0.5717026693    0.0037065896
N       -0.7327958387    0.4121003611    0.0063103420
H        0.8177589965    0.1609780544   -0.0094833768
3    
Iteration 6 Energy -92.25453472
C       -0.0749648303   -0.5580041898    0.0035896186
N       -0.7509988286    0.4094456177    0.0065215763
H        0.8310371154    0.1499343183   -0.0095776400
3    
Iteration 7 Energy -92.25749824
C       -0.0702503227   -0.5440797956    0.0034739061
N       -0.7689029233    0.4065182178    0.0067307995
H        0.8442267025    0.1389373240   -0.0096711508
3    
Iteration 8 Energy -92.26081135
C       -0.0657276364   -0.5299294481    0.0033592494
N       -0.7864860600    0.4033281637    0.0069377245
H        0.8572871529    0.1279770307   -0.0097634190
3    
Iteration 9 Energy -92.26442485
C       -0.0613791214   -0.5155537810    0.0032454583
N       -0.8037270940    0.3998844783    0.0071420784
H        0.8701796719    0.1170450489   -0.0098539818
3    
Iteration 10 Energy -92.26828734
C       -0.0571910277   -0.5009552344    0.0031323938
N       -0.8206074637    0.3961951069    0.0073436216
H        0.8828719479    0.1061358737   -0.0099424606
3    
Iteration 11 Energy -92.27234723
C       -0.0531522196   -0.4861375554    0.0030199515
N       -0.8371103415    0.3922672540    0.0075421372
H        0.8953360176    0.0952460476   -0.0100285337
3    
Iteration 12 Energy -92.27655442
C       -0.0492535039   -0.4711055396    0.0029080529
N       -0.8532202120    0.3881075974    0.0077374245
H        0.9075471724    0.0843736883   -0.0101119225
3    
Iteration 13 Energy -92.28086165
C       -0.0454869057   -0.4558647654    0.0027966365
N       -0.8689224323    0.3837224444    0.0079292946
H        0.9194827945    0.0735180672   -0.0101923762
3    
Iteration 14 Energy -92.28522543
C       -0.0418450800   -0.4404213842    0.0026856504
N       -0.8842028558    0.3791178248    0.0081175649
H        0.9311213924    0.0626793055   -0.0102696604
3    
Iteration 15 Energy -92.28960659
C       -0.0383216787   -0.4247821792    0.0025750565
N       -0.8990477925    0.3742994731    0.0083020594
H        0.9424429277    0.0518584523   -0.0103435610
3    
Iteration 16 Energy -92.29397052
C       -0.0349042781   -0.4089527109    0.0024647446
N       -0.9134414027    0.3692732887    0.0084825776
H        0.9534191372    0.0410551684   -0.0104137673
3    
Iteration 17 Energy -92.29828718
C       -0.0315889509   -0.3929411153    0.0023547092
N       -0.9273712901    0.3640445206    0.0086589600
H        0.9640336974    0.0302723409   -0.0104801143
3    
Iteration 18 Energy -92.30253080
C       -0.0283653839   -0.3767542164    0.0022448690
N       -0.9408219656    0.3586183508    0.0088310133
H        0.9742608060    0.0195116118   -0.0105423274
3    
Iteration 19 Energy -92.30667957
C       -0.0252246927   -0.3603996217    0.0021351620
N       -0.9537789302    0.3529997936    0.0089985558
H        0.9840770794    0.0087755743   -0.0106001630
3    
Iteration 20 Energy -92.31071520
C       -0.0221573220   -0.3438851707    0.0020255199
N       -0.9662272652    0.3471936448    0.0091614025
H        0.9934580437   -0.0019327279   -0.0106533674
3    
Iteration 21 Energy -92.31462244
C       -0.0191540639   -0.3272192104    0.0019158804
N       -0.9781523615    0.3412045591    0.0093193720
H        1.0023798819   -0.0126096025   -0.0107016975
3    
Iteration 22 Energy -92.31838863
C       -0.0162060697   -0.3104106030    0.0018061876
N       -0.9895399236    0.3350370822    0.0094722872
H        1.0108194498   -0.0232507330   -0.0107449199
3    
Iteration 23 Energy -92.32200326
C       -0.0133051740   -0.2934688013    0.0016963959
N       -1.0003762133    0.3286957149    0.0096199772
H        1.0187548439   -0.0338511675   -0.0107828182
3    
Iteration 24 Energy -92.32545759
C       -0.0104440139   -0.2764038722    0.0015864712
N       -1.0106481463    0.3221849671    0.0097622781
H        1.0261656167   -0.0444053487   -0.0108151943
3    
Iteration 25 Energy -92.32874429
C       -0.0076161375   -0.2592265182    0.0014763922
N       -1.0203433809    0.3155094156    0.0098990339
H        1.0330329750   -0.0549071513   -0.0108418711
3    
Iteration 26 Energy -92.33185709
C       -0.0048160286   -0.2419480882    0.0013661509
N       -1.0294503306    0.3086737552    0.0100300963
H        1.0393398158   -0.0653499208   -0.0108626923
3    
Iteration 27 Energy -92.33479051
C       -0.0020390998   -0.2245806008    0.0012557526
N       -1.0379581289    0.3016828484    0.0101553241
H        1.0450706851   -0.0757265014   -0.0108775218
3    
Iteration 28 Energy -92.33753955
C        0.0007183371   -0.2071367941    0.0011452157
N       -1.0458565336    0.2945417779    0.0102745819
H        1.0502116530   -0.0860292376   -0.0108862427
3    
Iteration 29 Energy -92.34009942
C        0.0034590850   -0.1896302313    0.0010345720
N       -1.0531357804    0.2872559113    0.0103877382
H        1.0547501519   -0.0962499338   -0.0108887553
3    
Iteration 30 Energy -92.34246526
C        0.0061850246   -0.1720754975    0.0009238682
N       -1.0597863763    0.2798309959    0.0104946628
H        1.0586748082   -0.1063797522   -0.0108849761
3    
Iteration 31 Energy -92.34463188
C        0.0088969772   -0.1544885482    0.0008131688
N       -1.0657988293    0.2722733127    0.0105952229
H        1.0619753086   -0.1164090183   -0.0108748369
3    
Iteration 32 Energy -92.34659354
C        0.0115944032   -0.1368873034    0.0007025624
N       -1.0711632901    0.2645899351    0.0106892783
H        1.0646423433   -0.1263268854   -0.0108582858
3    
Iteration 33 Energy -92.34834374
C        0.0142748622   -0.1192926600    0.0005921719
N       -1.0758690400    0.2567891756    0.0107766735
H        1.0666676344   -0.1361207693   -0.0108352905
3    
Iteration 34 Energy -92.34987527
C        0.0169330985   -0.1017302592    0.0004821729
N       -1.0799037006    0.2488813721    0.0108572255
H        1.0680440586   -0.1457753668   -0.0108058435
3    
Iteration 35 Energy -92.35118034
C        0.0195595231   -0.0842337497    0.0003728253
N       -1.0832518425    0.2408803406    0.0109307020
H        1.0687657759   -0.1552708447   -0.0107699724
3    
Iteration 36 Energy -92.35225100
C        0.0221374962   -0.0668514099    0.0002645336
N       -1.0858922266    0.2328063009    0.0109967775
H        1.0688281869   -0.1645791448   -0.0107277562
3    
Iteration 37 Energy -92.35307989
C        0.0246375378   -0.0496616635    0.0001579815
N       -1.0877916210    0.2246927139    0.0110549346
H        1.0682275397   -0.1736553042   -0.0106793612
3    
Iteration 38 Energy -92.35366133
C        0.0270015816   -0.0328189003    0.0000545152
N       -1.0888876746    0.2166065022    0.0111041833
H        1.0669595495   -0.1824118558   -0.0106251436
3    
Iteration 39 Energy -92.35399314
C        0.0290768065   -0.0167610126   -0.0000421764
N       -1.0890217370    0.2087409437    0.0111418983
H        1.0650183870   -0.1906041849   -0.0105661669
3    
Iteration 40 Energy -92.35408315
C        0.0299533613   -0.0048163463   -0.0001068076
N       -1.0874294816    0.2026303942    0.0111526526
H        1.0625495768   -0.1964383016   -0.0105122900
3    
Iteration 41 Energy -92.35408315
C        0.0299584588   -0.0047882735   -0.0001069927
N       -1.0874314916    0.2026168300    0.0111527371
H        1.0625464893   -0.1964528103   -0.0105121894
3    
Iteration 42 Energy -92.35408315
C        0.0299584727   -0.0047882767   -0.0001069920
N       -1.0874315135    0.2026168344    0.0111527369
H        1.0625464974   -0.1964528115   -0.0105121899
